New Circuit.56  basekv=13.8 Bus=MT1 pu=1.0 phases=3 R1=0 X1=0.0001
New Linecode.ideal nphases=3 baseFreq=60 R1=0.0001, X1=0.0001, units=km
New Line.MT Phases=3 Bus1=MT1.1.2.3 Bus2=MT1173.1.2.3 Linecode=ideal Length=0.001 units=km
